Circuit: * C:\Users\Liam\Documents\GitHub\Mobile-Robot\Electrical\Interface-PCBA\Simulation\PowerSupply.asc

v1: Missing value, assumed 0V @ DC
.dc sweep increment has wrong sign -- fixing...
Ignoring empty pin current: Ix(u3:2)
Ignoring empty pin current: Ix(u3:4)
Ignoring empty pin current: Ix(u3:6)
Direct Newton iteration failed to find .op point.  (Use ".option noopiter" to skip.)
Starting Gmin stepping
Gmin = 10
Gmin = 1.07374
vernier = 0.5
Gmin = 0.180144
vernier = 0.25
vernier = 0.333333
Gmin = 0.100762
vernier = 0.444444
Gmin = 0.0388781
vernier = 0.592592
vernier = 0.790123
Gmin = 0.00825223
vernier = 1
Gmin = 0.000965423
vernier = 0.5
Gmin = 0.000199964
vernier = 0.25
vernier = 0.333333
Gmin = 0.000120618
vernier = 0.444444
vernier = 0.592592
Gmin = 4.14331e-05
vernier = 0.790123
Gmin = 8.08418e-06
vernier = 1
Gmin = 8.68032e-07
Gmin = 9.32042e-08
Gmin = 1.00077e-08
Gmin = 1.07457e-09
Gmin = 1.15381e-10
Gmin = 1.2389e-11
Gmin = 1.33026e-12
Gmin = 1.42835e-13
Gmin = 0
Gmin stepping succeeded in finding the operating point.


Date: Fri Mar  8 16:16:56 2024
Total elapsed time: 0.085 seconds.

tnom = 27
temp = 27
method = trap
totiter = 1093
traniter = 0
tranpoints = 0
accept = 0
rejected = 0
matrix size = 23
fillins = 5
solver = Normal
Avg thread counts: 4.7/0.0/11.2/4.7
Matrix Compiler1:      86 opcodes  0.2/0.4/[0.2]
Matrix Compiler2: 2.06 KB object code size  0.5/0.5/[0.2]

